tests/data/power_flow/pandapower/components/asymmetric/sym_gen/asym_output.json
{
  "version": "1.0",
  "type": "asym_output",
  "is_batch": false,
  "attributes": {},
  "data": {
    "line": [
      {
        "id": 3,
        "p_from": [
          -3332.9756546720537,
          -3332.9756546720546,
          -3332.975654672055
        ],
        "q_from": [
          -12212.39993975587,
          -12212.399939755865,
          -12212.399939755867
        ],
        "i_from": [
          2.088200989904072,
          2.0882009899040717,
          2.088200989904072
        ],
        "p_to": [
          3333.3333333410274,
          3333.3333333410283,
          3333.333333341028
        ],
        "q_to": [
          666.6666666661201,
          666.6666666661187,
          666.6666666661205
        ],
        "i_to": [
          0.5607143573819016,
          0.5607143573819017,
          0.5607143573819016
        ]
      }
    ],
    "node": [
      {
        "id": 1,
        "u_pu": [
          1.0,
          0.9999999999999999,
          0.9999999999999999
        ],
        "u": [
          6062.177826491071,
          6062.17782649107,
          6062.17782649107
        ],
        "u_angle": [
          -1.5309321286361866e-32,
          -2.0943951023931953,
          2.0943951023931953
        ]
      },
      {
        "id": 2,
        "u_pu": [
          1.0000577197471556,
          1.0000577197471556,
          1.0000577197471554
        ],
        "u": [
          6062.527733862428,
          6062.527733862428,
          6062.527733862427
        ],
        "u_angle": [
          -2.5667517902300286e-05,
          -2.0944207699110975,
          2.094369434875293
        ]
      }
    ],
    "sym_gen": [
      {
        "id": 6,
        "p": [
          3333.3333333333335,
          3333.3333333333335,
          3333.3333333333335
        ],
        "q": [
          666.6666666666666,
          666.6666666666666,
          666.6666666666666
        ]
      },
      {
        "id": 7,
        "p": [
          0.0,
          0.0,
          0.0
        ],
        "q": [
          0.0,
          0.0,
          0.0
        ]
      }
    ]
  }
}
